*Heading
** Job name: Job-1 Model name: Model-1
** Generated by: Abaqus/CAE 6.14-1
*Preprint, echo=NO, model=NO, history=NO, contact=NO
**
** PARTS
**
*Part, name=Part-1
*End Part
**  
**
** ASSEMBLY
**
*Assembly, name=Assembly
**  
*Instance, name=Part-1-1, part=Part-1
** add body force elements
*USER ELEMENT, TYPE=U1, NODES=8, COORDINATES=3, PROPERTIES=8
1,2,3
*Node
      1,  -1.11803401,           0.,           0.
      2,   1.11803401,           0.,           0.
      3,           1.,          0.5,           0.
      4, -0.913566947,           0.,           0.
      5,   -0.7330935,           0.,           0.
      6, -0.557684779,           0.,           0.
      7,  -0.38085109,           0.,           0.
      8, -0.199727908,           0.,           0.
      9, -0.016449444,           0.,           0.
     10,  0.166099504,           0.,           0.
     11,  0.347540081,           0.,           0.
     12,  0.528415084,           0.,           0.
     13,  0.711526632,           0.,           0.
     14,  0.903885484,           0.,           0.
     15,   1.09374368, -0.231785938,           0.
     16,   1.02558267, -0.445174396,           0.
     17,    0.9274382,  -0.62438637,           0.
     18,  0.820491672, -0.759469151,           0.
     19,  0.718883932, -0.856274426,           0.
     20,  0.607830346, -0.938372135,           0.
** ... 6253 like lines cut
*Element, type=C3D8H
   1,  158,  159,  213,  211,    5,    6,   60,   58
   2,  159,  160,  214,  213,    6,    7,   61,   60
   3,  160,  161,  201,  214,    7,    8,   48,   61
   4,  211,  213,  215,  210,   58,   60,   62,   57
   5,  213,  214,  216,  215,   60,   61,   63,   62
   6,  214,  201,  202,  216,   61,   48,   49,   63
   7,  210,  215,  217,  209,   57,   62,   64,   56
   8,  215,  216,  218,  217,   62,   63,   65,   64
   9,  216,  202,  203,  218,   63,   49,   50,   65
  10,  209,  217,  208,  206,   56,   64,   55,   53
  11,  217,  218,  207,  208,   64,   65,   54,   55
  12,  218,  203,  204,  207,   65,   50,   51,   54
  13,  204,  205,  219,  207,   51,   52,   66,   54
  14,  205,  178,  179,  219,   52,   25,   26,   66
  15,  207,  219,  220,  208,   54,   66,   67,   55
  16,  219,  179,  180,  220,   66,   26,   27,   67
  17,  208,  220,  212,  206,   55,   67,   59,   53
  18,  220,  180,  181,  212,   67,   27,   28,   59
  19,  181,  182,  221,  212,   28,   29,   68,   59
  20,  182,  183,  222,  221,   29,   30,   69,   68
** ... 5340 like lines cut
*ELEMENT, TYPE=U1
6001,158,159,213,211,5,6,60,58
6002,159,160,214,213,6,7,61,60
6003,160,161,201,214,7,8,48,61
6004,211,213,215,210,58,60,62,57
6005,213,214,216,215,60,61,63,62
6006,214,201,202,216,61,48,49,63
6007,210,215,217,209,57,62,64,56
6008,215,216,218,217,62,63,65,64
6009,216,202,203,218,63,49,50,65
6010,209,217,208,206,56,64,55,53
6011,217,218,207,208,64,65,54,55
6012,218,203,204,207,65,50,51,54
6013,204,205,219,207,51,52,66,54
6014,205,178,179,219,52,25,26,66
6015,207,219,220,208,54,66,67,55
6016,219,179,180,220,66,26,27,67
6017,208,220,212,206,55,67,59,53
6018,220,180,181,212,67,27,28,59
6019,181,182,221,212,28,29,68,59
6020,182,183,222,221,29,30,69,68
** ... 5340 like lines cut
*Nset, nset=Set-3, generate
    1,  6273,     1
*Elset, elset=Set-3, generate
    1,  5360,     1
*Elset, elset=BODYFORCE, generate
6000,11360,1
** Define UEL properties:
**  rho, Omega, axis(1:3), x0(1:3)
*UEL PROPERTY, ELSET=BODYFORCE
10., 5.0,  0., 1., 0.,   0., 0., 0.   
** Section: Section-1
*Solid Section, elset=Set-3, material=Material-1
,
*End Instance
**  
*Nset, nset=Set-1, instance=Part-1-1, generate
   1,  153,    1
*Elset, elset=Set-1, instance=Part-1-1, generate
   1,  134,    1
*Nset, nset=Set-2, instance=Part-1-1
 2,
*Nset, nset=Set-3, instance=Part-1-1
 1,
*End Assembly
** 
** MATERIALS
** 
*Material, name=Material-1
*Hyperelastic, neo hooke
1000.,0.
** 
** BOUNDARY CONDITIONS
** 
** Name: BC-1 Type: Displacement/Rotation
*Boundary
Set-1, 3, 3
Set-1, 1, 1
Set-1, 2, 2
** ----------------------------------------------------------------
** 
** STEP: Step-1
** 
*Step, name=Step-1, nlgeom=YES
*Static
0.1, 1., 1e-05, 0.1
** 
** OUTPUT REQUESTS
** 
*Restart, write, frequency=0
** 
** FIELD OUTPUT: F-Output-1
** 
*Output, field, variable=PRESELECT
** 
** HISTORY OUTPUT: H-Output-1
** 
*Output, history, variable=PRESELECT
*End Step
